37

Co         4.61990        2.49570        2.01560
C          4.24430        1.95810       -0.74940
C          3.58390        3.34070       -0.49720
C          2.71060        3.05070        4.02050
C          3.64900        4.21190        4.06530
C          6.56580        0.93240        3.41070
C          7.21660        1.29370        2.08720
H          4.75010        0.54930        0.55440
H          3.29240        0.95720        0.66890
H          3.75210        1.44520       -1.45230
H          5.20300        2.06300       -1.02660
H          3.68560        4.53240        1.06420
H          5.04160        4.29060        0.42570
H          2.60620        3.22270       -0.32730
H          3.72360        3.93220       -1.28410
H          2.28080        3.13520        2.05140
H          2.38930        1.70310        2.54500
H          3.00900        2.32520        4.64470
H          1.78180        3.32900        4.25660
H          5.45520        3.38730        4.11530
H          5.36430        4.52800        3.11740
H          3.80090        4.49020        5.01850
H          3.26930        4.98260        3.55550
H          4.67410        1.11310        4.06530
H          4.78530        0.18210        2.87050
H          6.83290        0.00870        3.69150
H          6.83560        1.58370        4.12250
H          6.63080        2.47380        0.64210
H          6.94270        3.22410        1.92440
H          7.11630        0.53320        1.44690
H          8.18070        1.49190        2.23030
N          4.15890        1.27480        0.54370
N          4.23610        3.88990        0.68140
N          2.76220        2.55690        2.60580
N          4.91690        3.78360        3.45900
N          5.08360        0.98630        3.24080
N          6.54130        2.46510        1.57210
