23

Ru         1.69100        2.24630        6.44800
C          3.63570        2.24630        7.43200
C          1.73210        2.97220        8.51180
C          2.91590        3.41880        7.83890
C          1.81250        2.24630        4.27320
C         -0.08760        2.97580        5.38370
C          1.09060        3.42600        4.69800
H          4.57540        2.24630        6.89980
H          0.97250        3.60570        8.94430
H          3.21140        4.44400        7.67130
H          2.74300        2.24630        3.72560
H         -0.84360        3.60840        5.82510
H          1.38250        4.45210        4.52910
C          1.73210        1.52030        8.51180
C          2.91590        1.07370        7.83890
C         -0.08760        1.51670        5.38370
C          1.09060        1.06650        4.69800
H          0.97250        0.88680        8.94430
H          3.21140        0.04850        7.67130
H         -0.84360        0.88410        5.82510
H          1.38250        0.04040        4.52910
H          2.58634        2.24626        8.02668
H          0.76370        2.24626        4.88732
